<NUMBER OF ZONES> 387											
<NUMBER OF NODES> 933											
<FIRST THRU NODE> 388											
<NUMBER OF LINKS> 2950
<TOTAL OD FLOW> 1260907.4400005303

<ORIGINAL HEADER>~	from 	to	capacity	length	ftime	B	power	speed	toll	type						
<END OF METADATA>										


